Network_data/Greensboro_GSO_urban_SH_BH/uhs6_1247/analysis/peak_line_overloads.csv
Loading (p.u.),Name,Bus1,Bus2
1.441865171364219,Line.l(r:udm40237-udt11985lv),udt11985lv.1.2,udm40237.1.2
1.4418654527558044,Line.l(r:p1ulv34771-udm40237),udm40237.1.2,p1ulv34771.1.2
2.4941758744858027,Line.l(r:udm30490-udt8486lv),udt8486lv.1.2,udm30490.1.2
2.4941759247983506,Line.l(r:p1ulv27710-udm30490),udm30490.1.2,p1ulv27710.1.2
2.6862112819881245,Line.l(r:p1ulv17371-udt8335lv),udt8335lv.1.2,p1ulv17371.1.2
